Version 4
SHEET 1 2704 1272
WIRE -416 64 -576 64
WIRE -176 64 -352 64
WIRE 336 64 16 64
WIRE 576 64 400 64
WIRE 1472 64 1152 64
WIRE 1840 64 1472 64
WIRE -416 96 -736 96
WIRE 336 96 176 96
WIRE 1472 144 1472 64
WIRE 1472 144 1456 144
WIRE 1840 144 1840 64
WIRE 1840 144 1824 144
WIRE -416 160 -416 112
WIRE 336 160 336 112
WIRE -736 176 -736 96
WIRE -576 176 -576 64
WIRE 16 176 16 64
WIRE 176 176 176 96
WIRE 1360 176 1296 176
WIRE 1728 176 1664 176
WIRE 1360 224 1328 224
WIRE 1728 224 1696 224
WIRE 1472 240 1456 240
WIRE 1840 240 1824 240
WIRE 1328 288 1328 224
WIRE 1328 288 1280 288
WIRE 1472 288 1472 240
WIRE 1472 288 1328 288
WIRE 1696 288 1696 224
WIRE 1696 288 1632 288
WIRE 1840 288 1840 240
WIRE 1840 288 1696 288
WIRE -736 304 -736 256
WIRE -576 304 -576 256
WIRE 16 304 16 256
WIRE 176 304 176 256
WIRE 1472 336 1472 288
WIRE 1872 336 1472 336
WIRE 2000 336 1952 336
WIRE 2144 336 2144 240
WIRE 2144 336 2000 336
WIRE 1152 368 1152 64
WIRE 2000 368 2000 336
WIRE 2144 368 2144 336
WIRE 336 432 16 432
WIRE 576 432 400 432
WIRE -416 448 -576 448
WIRE -176 448 -352 448
WIRE 336 464 176 464
WIRE -416 480 -736 480
WIRE 1840 480 1840 288
WIRE 2000 480 2000 432
WIRE 2000 480 1840 480
WIRE 2144 480 2144 448
WIRE 2144 480 2000 480
WIRE 1472 496 1472 336
WIRE 1472 496 1456 496
WIRE 1840 496 1840 480
WIRE 1840 496 1824 496
WIRE 336 528 336 480
WIRE 1360 528 1296 528
WIRE 1728 528 1664 528
WIRE -416 544 -416 496
WIRE 16 544 16 432
WIRE 176 544 176 464
WIRE -736 560 -736 480
WIRE -576 560 -576 448
WIRE 2144 560 2144 480
WIRE 1360 576 1328 576
WIRE 1728 576 1696 576
WIRE 1472 592 1456 592
WIRE 1840 592 1824 592
WIRE 1328 640 1328 576
WIRE 1472 640 1472 592
WIRE 1472 640 1328 640
WIRE 1696 640 1696 576
WIRE 1840 640 1840 592
WIRE 1840 640 1696 640
WIRE 16 672 16 624
WIRE 176 672 176 624
WIRE -736 688 -736 640
WIRE -576 688 -576 640
WIRE 1152 720 1152 448
WIRE 1472 720 1472 640
WIRE 1472 720 1152 720
WIRE 1840 720 1840 640
WIRE 1840 720 1472 720
WIRE 1152 736 1152 720
FLAG 16 304 0
FLAG 176 304 0
FLAG 16 672 0
FLAG 176 672 0
FLAG 576 64 VC1+
FLAG 336 160 VC1-
FLAG 1280 288 VC1-
FLAG 1296 176 VC1+
FLAG 1152 736 0
FLAG 576 432 VC2+
FLAG 1632 288 VC2-
FLAG 1296 528 VC1\+
FLAG 1664 528 VC2\+
FLAG 336 528 VC2-
FLAG 1664 176 VC2+
FLAG -736 304 0
FLAG -576 304 0
FLAG -176 64 VC1\+
FLAG -416 160 0
FLAG -736 688 0
FLAG -576 688 0
FLAG -176 448 VC2\+
FLAG -416 544 0
FLAG 2144 240 VOUT2
FLAG 2144 560 VOUT1
FLAG 1152 64 VIN
SYMBOL voltage 176 160 R0
WINDOW 123 0 0 Left 0
WINDOW 39 0 0 Left 0
WINDOW 3 24 96 Invisible 2
SYMATTR Value PULSE({-v_tri} {v_tri} 0 {1/(2*f_tri)} {1/(2*f_tri)} 0 {1/f_tri})
SYMATTR InstName V1
SYMBOL voltage 16 160 R0
WINDOW 123 0 0 Left 0
WINDOW 39 0 0 Left 0
WINDOW 3 24 96 Invisible 2
SYMATTR Value SINE(0 {V_control} {f_sin})
SYMATTR InstName V2
SYMBOL Digital\\diffschmitt 336 16 R0
WINDOW 3 0 0 Invisible 0
SYMATTR Value vhigh=5 vlow=0 vt={vt}
SYMATTR InstName A2
SYMATTR Value2 trise=10n tfall=10n
SYMBOL voltage 176 528 R0
WINDOW 123 0 0 Left 0
WINDOW 39 0 0 Left 0
WINDOW 3 24 96 Invisible 2
SYMATTR Value PULSE({-v_tri} {v_tri} 0 {1/(2*f_tri)} {1/(2*f_tri)} 0 {1/f_tri})
SYMATTR InstName V3
SYMBOL voltage 16 528 R0
WINDOW 123 0 0 Left 0
WINDOW 39 0 0 Left 0
WINDOW 3 24 96 Invisible 2
SYMATTR Value SINE(0 {V_control} {f_sin} 0 0 180)
SYMATTR InstName V4
SYMBOL Digital\\diffschmitt 336 384 R0
WINDOW 3 0 0 Invisible 0
SYMATTR Value vhigh=5 vlow=0 vt={vt}
SYMATTR InstName A1
SYMATTR Value2 trise=10n tfall=10n
SYMBOL AutoGenerated\\GaN_LTspice_GS-065-004-1-L_L1V3P1 1408 224 R0
WINDOW 3 0 64 Invisible 0
SYMATTR InstName TA+
SYMBOL AutoGenerated\\GaN_LTspice_GS-065-004-1-L_L1V3P1 1408 576 R0
WINDOW 3 0 64 Invisible 0
SYMATTR InstName TA-
SYMBOL AutoGenerated\\GaN_LTspice_GS-065-004-1-L_L1V3P1 1776 224 R0
WINDOW 3 0 64 Invisible 0
SYMATTR InstName TB+
SYMBOL AutoGenerated\\GaN_LTspice_GS-065-004-1-L_L1V3P1 1776 576 R0
WINDOW 3 0 64 Invisible 0
SYMATTR InstName TB-
SYMBOL voltage 1152 352 R0
WINDOW 123 0 0 Left 0
WINDOW 39 0 0 Left 0
SYMATTR InstName V5
SYMATTR Value 400
SYMBOL ind 1856 352 R270
WINDOW 0 32 56 VTop 2
WINDOW 3 5 56 VBottom 2
SYMATTR InstName L1
SYMATTR Value 120µ
SYMBOL cap 1984 368 R0
SYMATTR InstName C1
SYMATTR Value 10µ
SYMBOL res 2128 352 R0
SYMATTR Value 132
SYMATTR InstName LOAD
SYMBOL voltage -576 160 R0
WINDOW 123 0 0 Left 0
WINDOW 39 0 0 Left 0
WINDOW 3 24 96 Invisible 2
SYMATTR Value PULSE({-v_tri} {v_tri} 0 {1/(2*f_tri)} {1/(2*f_tri)} 0 {1/f_tri})
SYMATTR InstName V6
SYMBOL voltage -736 160 R0
WINDOW 123 0 0 Left 0
WINDOW 39 0 0 Left 0
WINDOW 3 24 96 Invisible 2
SYMATTR Value SINE(0 {V_control} {f_sin})
SYMATTR InstName V7
SYMBOL Digital\\diffschmitt -416 16 R0
WINDOW 3 0 0 Invisible 0
SYMATTR Value vhigh=5 vlow=0 vt={vt}
SYMATTR InstName A3
SYMATTR Value2 trise=10n tfall=10n
SYMBOL voltage -576 544 R0
WINDOW 123 0 0 Left 0
WINDOW 39 0 0 Left 0
WINDOW 3 24 96 Invisible 2
SYMATTR Value PULSE({-v_tri} {v_tri} 0 {1/(2*f_tri)} {1/(2*f_tri)} 0 {1/f_tri})
SYMATTR InstName V8
SYMBOL voltage -736 544 R0
WINDOW 123 0 0 Left 0
WINDOW 39 0 0 Left 0
WINDOW 3 24 96 Invisible 2
SYMATTR Value SINE(0 {V_control} {f_sin} 0 0 180)
SYMATTR InstName V9
SYMBOL Digital\\diffschmitt -416 400 R0
WINDOW 3 0 0 Invisible 0
SYMATTR Value vhigh=5 vlow=0 vt={vt}
SYMATTR InstName A4
SYMATTR Value2 trise=10n tfall=10n
TEXT 872 1184 Left 2 !.tran 0 20.1m 0
TEXT 1344 976 Left 2 !.meas PIN AVG V(VIN)*(-I(V5)) FROM 1u TO 20.001m\n.meas POUT AVG  V(VOUT2,VOUT1)*I(LOAD) FROM 1u TO 20.001m\n.meas EFF PARAM POUT/PIN
TEXT -784 896 Left 2 !.param v_control=4.113 v_tri=5 vt=0.02 f_tri=100k f_sin=50
TEXT 1352 1168 Left 2 !.meas IOUT RMS I(LOAD) FROM 1u TO 20.001m\n.meas VOUT RMS V(VOUT2,VOUT1) FROM 1u TO 20.001m
