Version 4
SHEET 1 2408 724
WIRE 928 -784 656 -784
WIRE 1088 -784 928 -784
WIRE 1168 -784 1088 -784
WIRE 1200 -784 1168 -784
WIRE -768 -768 -1040 -768
WIRE -496 -768 -768 -768
WIRE -768 -752 -768 -768
WIRE -496 -752 -496 -768
WIRE 656 -736 656 -784
WIRE 656 -736 640 -736
WIRE 928 -736 928 -784
WIRE 928 -736 912 -736
WIRE 544 -704 496 -704
WIRE 816 -704 768 -704
WIRE -848 -656 -864 -656
WIRE -576 -656 -592 -656
WIRE 544 -656 528 -656
WIRE 816 -656 800 -656
WIRE 656 -640 640 -640
WIRE 928 -640 912 -640
WIRE -768 -592 -768 -624
WIRE -496 -592 -496 -624
WIRE -1040 -576 -1040 -768
WIRE -768 -560 -768 -592
WIRE -368 -560 -768 -560
WIRE -208 -560 -304 -560
WIRE 0 -560 -128 -560
WIRE 224 -560 0 -560
WIRE 480 -560 272 -560
WIRE 528 -560 528 -656
WIRE 528 -560 480 -560
WIRE 656 -560 656 -640
WIRE 656 -560 528 -560
WIRE 800 -560 800 -656
WIRE 928 -560 928 -640
WIRE 928 -560 800 -560
WIRE 1088 -560 1088 -784
WIRE 1200 -560 1200 -784
WIRE -496 -480 -496 -592
WIRE 0 -480 -496 -480
WIRE 224 -480 0 -480
WIRE 752 -480 272 -480
WIRE 928 -480 928 -560
WIRE 928 -480 752 -480
WIRE -768 -432 -768 -560
WIRE -496 -432 -496 -480
WIRE 656 -400 656 -560
WIRE 656 -400 640 -400
WIRE 928 -400 928 -480
WIRE 928 -400 912 -400
WIRE 544 -368 496 -368
WIRE 816 -368 768 -368
WIRE -848 -336 -864 -336
WIRE -576 -336 -592 -336
WIRE 544 -320 528 -320
WIRE 816 -320 800 -320
WIRE -1040 -304 -1040 -496
WIRE -768 -304 -1040 -304
WIRE -656 -304 -768 -304
WIRE -496 -304 -656 -304
WIRE 656 -304 640 -304
WIRE 928 -304 912 -304
WIRE -1040 -272 -1040 -304
WIRE 528 -240 528 -320
WIRE 656 -240 656 -304
WIRE 656 -240 528 -240
WIRE 752 -240 656 -240
WIRE 800 -240 800 -320
WIRE 800 -240 752 -240
WIRE 928 -240 928 -304
WIRE 928 -240 800 -240
WIRE 1088 -240 1088 -496
WIRE 1088 -240 928 -240
WIRE 1200 -240 1200 -480
WIRE 1200 -240 1088 -240
WIRE 1200 -224 1200 -240
WIRE -464 -64 -464 -128
WIRE 576 -64 576 -128
WIRE -976 -16 -976 -80
WIRE 64 -16 64 -80
WIRE -464 80 -464 16
WIRE 576 80 576 16
WIRE -976 128 -976 64
WIRE 64 128 64 64
WIRE -464 448 -464 384
WIRE 576 448 576 384
WIRE -976 496 -976 432
WIRE 64 496 64 432
WIRE -464 592 -464 528
WIRE 576 592 576 528
WIRE -976 640 -976 576
WIRE 64 640 64 576
FLAG -864 -656 G1
FLAG -592 -656 G2
FLAG -864 -336 G3
FLAG -592 -336 G4
FLAG -976 -80 G1
FLAG -464 -128 G2
FLAG 64 -80 G3
FLAG 576 -128 G4
FLAG -768 -592 S1
FLAG -496 -592 S2
FLAG -656 -304 S
FLAG 64 128 S
FLAG 576 80 S
FLAG -976 128 S1
FLAG -464 80 S2
FLAG -1040 -272 0
FLAG 1168 -784 VOUT
FLAG -1040 -768 VIN
FLAG 1200 -224 0
FLAG -976 432 G5
FLAG -464 384 G6
FLAG 64 432 G7
FLAG 576 384 G8
FLAG 64 640 S
FLAG 576 592 S
FLAG -976 640 S5
FLAG -464 592 S6
FLAG 496 -704 G5
FLAG 768 -704 G6
FLAG 496 -368 G7
FLAG 768 -368 G8
FLAG 480 -560 S5
FLAG 752 -480 S6
FLAG 752 -240 S
SYMBOL ind2 288 -464 R180
WINDOW 0 -31 77 Left 2
WINDOW 3 -122 40 Left 2
SYMATTR InstName L1
SYMATTR Value 298m
SYMATTR Type ind
SYMBOL ind2 208 -464 M180
WINDOW 0 -38 79 Left 2
WINDOW 3 -90 38 Left 2
SYMATTR InstName L2
SYMATTR Value 1m
SYMATTR Type ind
SYMBOL ind -16 -576 R0
SYMATTR InstName Lm
SYMATTR Value 196.91n
SYMBOL ind -224 -544 R270
WINDOW 0 32 56 VTop 2
WINDOW 3 5 56 VBottom 2
SYMATTR InstName Lr
SYMATTR Value 37.15n
SYMBOL cap -304 -576 R90
WINDOW 0 0 32 VBottom 2
WINDOW 3 32 32 VTop 2
SYMATTR InstName Cr
SYMATTR Value 681.77n
SYMBOL voltage -1040 -592 R0
WINDOW 123 0 0 Left 0
WINDOW 39 0 0 Left 0
SYMATTR InstName V1
SYMATTR Value 24
SYMBOL cap 1072 -560 R0
SYMATTR InstName C1
SYMATTR Value 10µ
SYMBOL res 1184 -576 R0
SYMATTR InstName LOAD
SYMATTR Value 400
SYMBOL voltage -976 -32 R0
WINDOW 3 -215 224 Left 2
WINDOW 123 0 0 Left 0
WINDOW 39 0 0 Left 0
SYMATTR Value PULSE(0 5 0 4n 4n {1/(2*f)} {1/f})
SYMATTR InstName V2
SYMBOL voltage -464 -80 R0
WINDOW 3 -223 227 Left 2
WINDOW 123 0 0 Left 0
WINDOW 39 0 0 Left 0
SYMATTR Value PULSE(0 5 {(1/(2*f))+2*td} 4n 4n {(1/(2*f))-4*td} {1/f})
SYMATTR InstName V3
SYMBOL AutoGenerated\\Tirocinio\\EPCGaN -848 -656 R0
SYMATTR InstName U1
SYMATTR Value EPC2207
SYMBOL AutoGenerated\\Tirocinio\\EPCGaN -576 -656 R0
SYMATTR InstName U2
SYMATTR Value EPC2207
SYMBOL AutoGenerated\\Tirocinio\\EPCGaN -848 -336 R0
SYMATTR InstName U3
SYMATTR Value EPC2207
SYMBOL AutoGenerated\\Tirocinio\\EPCGaN -576 -336 R0
SYMATTR InstName U4
SYMATTR Value EPC2207
SYMBOL AutoGenerated\\GaN_LTspice_GS-065-004-1-L_L1V3P1 592 -656 R0
WINDOW 3 0 40 Top 0
SYMATTR InstName U5
SYMBOL AutoGenerated\\GaN_LTspice_GS-065-004-1-L_L1V3P1 864 -656 R0
WINDOW 3 0 40 Top 0
SYMATTR InstName U6
SYMBOL AutoGenerated\\GaN_LTspice_GS-065-004-1-L_L1V3P1 592 -320 R0
WINDOW 3 0 40 Top 0
SYMATTR InstName U7
SYMBOL AutoGenerated\\GaN_LTspice_GS-065-004-1-L_L1V3P1 864 -320 R0
WINDOW 3 0 40 Top 0
SYMATTR InstName U8
SYMBOL voltage 64 -32 R0
WINDOW 3 -223 227 Left 2
WINDOW 123 0 0 Left 0
WINDOW 39 0 0 Left 0
SYMATTR Value PULSE(0 5 {(1/(2*f))+2*td} 4n 4n {(1/(2*f))-4*td} {1/f})
SYMATTR InstName V4
SYMBOL voltage 576 -80 R0
WINDOW 3 -215 224 Left 2
WINDOW 123 0 0 Left 0
WINDOW 39 0 0 Left 0
SYMATTR Value PULSE(0 5 0 4n 4n {1/(2*f)} {1/f})
SYMATTR InstName V5
SYMBOL voltage -976 480 R0
WINDOW 3 -215 224 Left 2
WINDOW 123 0 0 Left 0
WINDOW 39 0 0 Left 0
SYMATTR Value PULSE(0 5 0 4n 4n {1/(2*f)} {1/f})
SYMATTR InstName V6
SYMBOL voltage -464 432 R0
WINDOW 3 -223 227 Left 2
WINDOW 123 0 0 Left 0
WINDOW 39 0 0 Left 0
SYMATTR Value PULSE(0 5 {(1/(2*f))+2*td} 4n 4n {(1/(2*f))-4*td} {1/f})
SYMATTR InstName V7
SYMBOL voltage 64 480 R0
WINDOW 3 -223 227 Left 2
WINDOW 123 0 0 Left 0
WINDOW 39 0 0 Left 0
SYMATTR Value PULSE(0 5 {(1/(2*f))+2*td} 4n 4n {(1/(2*f))-4*td} {1/f})
SYMATTR InstName V8
SYMBOL voltage 576 432 R0
WINDOW 3 -215 224 Left 2
WINDOW 123 0 0 Left 0
WINDOW 39 0 0 Left 0
SYMATTR Value PULSE(0 5 0 4n 4n {1/(2*f)} {1/f})
SYMATTR InstName V9
TEXT 176 -632 Left 2 !K L1 L2 1
TEXT 1408 -144 Left 2 !.tran 3m
TEXT 1408 -200 Left 2 !.param f=1Meg td=4n
TEXT 1408 -408 Left 2 !.meas Pin AVG V(VIN)*-I(V1) FROM 2m TO 3m
TEXT 1408 -352 Left 2 !.meas Pout AVG V(VOUT)*I(LOAD) FROM 2m TO 3m
TEXT 1408 -296 Left 2 !.meas Eff param Pout/Pin
TEXT 1408 -656 Left 2 !.meas Vin AVG V(VIN) FROM 2m TO 3m
TEXT 1408 -608 Left 2 !.meas Iin AVG -I(V1) FROM 2m TO 3m
TEXT 1408 -544 Left 2 !.meas Vout AVG V(VOUT) FROM 2m TO 3m
TEXT 1408 -496 Left 2 !.meas Iout AVG I(LOAD) FROM 2m TO 3m
TEXT 1408 32 Left 2 !.lib EPCGaNLibrary.lib
